
     RDKit          3D

 11 11  0  0  0  0  0  0  0  0999 V2000
    3.7111    0.0189    0.2233 C   0  0  0  0  0  0  0  0  0  0  0  0
    2.3624    0.4031   -0.3333 C   0  0  0  0  0  0  0  0  0  0  0  0
    2.2729    1.1973   -1.2623 O   0  0  0  0  0  0  0  0  0  0  0  0
    1.3246   -0.2142    0.3417 N   0  0  0  0  0  0  0  0  0  0  0  0
   -0.0580   -0.0846    0.0950 C   0  0  0  0  0  0  0  0  0  0  0  0
   -0.6005    0.7100   -0.9169 C   0  0  0  0  0  0  0  0  0  0  0  0
   -1.9862    0.7818   -1.0946 C   0  0  0  0  0  0  0  0  0  0  0  0
   -2.8303    0.0598   -0.2620 C   0  0  0  0  0  0  0  0  0  0  0  0
   -4.1727    0.1608   -0.4728 O   0  0  0  0  0  0  0  0  0  0  0  0
   -2.3120   -0.7373    0.7505 C   0  0  0  0  0  0  0  0  0  0  0  0
   -0.9262   -0.8077    0.9263 C   0  0  0  0  0  0  0  0  0  0  0  0
  1  2  1  0
  2  3  2  0
  2  4  1  0
  4  5  1  0
  5  6  2  0
  6  7  1  0
  7  8  2  0
  8  9  1  0
  8 10  1  0
 10 11  2  0
 11  5  1  0
M  END
$$$$
